77

H       6.109708316986020     10.203705062310719     16.988860539170101
H      17.068221717801290      7.737639867670980     18.827336810385191
H      15.291382471061301      7.513365671259620     17.099073193961409
H      18.900178874628981     10.420313073223850      8.061361277334690
H      17.152561754501050     10.477989184584681      9.829682204677900
H       6.904472698867790      7.162590927165130      7.147496865658800
H       8.645004417749250      7.012975763786040      8.923033148192040
H      16.805022788938260      7.183842923171290      6.117874330334730
H      15.060888275865500      7.259688222568450      7.886200519559480
H       7.409562498988470     11.448510376975250      7.028568905804590
H       9.152373738785940     11.285250579501961      8.800403758827439
H       8.228251205072050      6.862098393528880     18.716042607908321
H       9.939887398723300      7.036723280473020     16.924853415278381
H      18.689417033242950     11.131424030281559     16.710479003642050
H      16.912448370961549     10.892505016524950     14.981586422287940
H      11.077416259037451      9.581228205887861     17.401081164645991
H       7.486756059271430      8.105861420249600     13.762389120276380
H      13.778716378924299      9.778530577472910     17.403537088122771
H      17.484346399901980      8.313478937788210     13.851111737437700
H      13.869373554086030      9.707853438555100      7.516769654742350
H      17.485940521029310      8.164412734548350     11.142943511040031
H      11.168369364323620      9.796068945199121      7.524074273728550
H       7.489111006012790      8.304406424802719     11.053046205516130
H       6.301503660396560      8.453742821512160     18.762384597469531
H      18.770157504538961      9.551843086168491     18.640149903702302
H      18.735054995483470      8.767397764476041      6.195059162434380
H       6.282073914896810      9.383951854168080      6.194531696386840
C       6.945137899108660      9.501293261820519     16.978670214499189
C       7.906917905214350      9.591806248629149     15.965577007411429
C      17.034200876085439      8.435314659944471     17.989025310942019
C      16.032963705948369      8.308658993348820     17.021095024327860
C      18.062525526153379      9.722203064545770      8.019128260472890
C      17.082685887242150      9.756196789105800      9.015045595622180
C       7.391700939251540      8.069750316428101      7.508552788901090
C       8.371045429160620      7.982037481816950      8.504566941718030
C      16.885878632799550      7.911141292270400      6.927406005963030
C      15.902827142215751      7.952498924141480      7.920057354094770
C       7.678728029121110     10.473494285269810      7.437994662401920
C       8.656419678301470     10.385148508062670      8.435350492659270
C       8.135155009532360      7.633868798997480     17.950229445018412
C       9.098087339101101      7.730243978390590     16.943697493425692
C      17.947745870083601     10.335888745261860     16.797851434369012
C      16.952628995803249     10.202908216908879     15.825041652783829
C       7.051876420413980      8.524043900837251     17.973811753649919
C       8.995278299137381      8.707086547419649     15.937459993372491
C      10.032597084800679      8.793857242385300     14.873245579373011
C      11.352227676591591      9.080063598723530     15.245828781040210
C       9.674089456040489      8.603674988041471     13.545889368178210
C      11.751409523088849      9.429745614329580     16.564840473947061
C       8.319683422366589      8.320432765792690     13.102038948743189
C      17.992139822960191      9.450963811738379     17.881821335904331
C      15.982175201088779      9.191018147159729     15.927584032552350
C      14.927046526473619      9.069636354391820     14.885137092220100
C      13.583632507650890      9.230801918875930     15.249923578000050
C      15.303361418649789      8.802535854172451     13.573598178045239
C      13.134830039991860      9.531188086668241     16.566552184715430
C      16.658862037800560      8.473702663421850     13.166289180642201
C      17.969363248736919      8.797279848297221      6.971569466122970
C      15.989249658000920      8.872719144648320      8.979001170307811
C      14.948130658393159      8.914913185449130     10.037968351373269
C      13.623439219066711      9.192346642510509      9.677390537443650
C      15.309339264513120      8.707977802436099     11.363664683279300
C      13.209804219284440      9.540874224443900      8.361553809374341
C      16.657270795719239      8.396387484401570     11.802870850692701
C       7.043947130401280      9.315605278332781      6.972525732515640
C       9.008719426557461      9.139423577139000      8.975450075255489
C      10.056092644199440      9.050836587429719     10.038988299676589
C      11.390169877211751      9.284128997328070      9.686032199013329
C       9.681279108382491      8.731392594265939     11.337375152890790
C      11.822474200320150      9.594573886623060      8.364635484058329
C       8.320178543891240      8.418188820748901     11.739210760414201
H       7.802301663734750     10.360149267215270     15.198913523894079
N      12.478536699189840      9.013154023146701     14.397756424708639
N      12.503614316532619      9.086290082542041     10.528919421603460
N      10.522543000619780      8.792481996514550     12.451898665032889
N      14.461747347200861      8.876694470741359     12.461025839441220
Fe     12.490546435788570      8.947662713029610     12.462168289380100
